Info: SIMULATION PARAMETERS:
Info: TIMESTEP               2
Info: NUMBER OF STEPS        0
Info: STEPS PER CYCLE        10
Info: PERIODIC CELL BASIS 1  70.356 0 0
Info: PERIODIC CELL BASIS 2  0 70.356 0
Info: PERIODIC CELL BASIS 3  0 0 70.356
Info: PERIODIC CELL CENTER   -0.0148716 -0.37094 -0.0619583
Info: WRAPPING WATERS AROUND PERIODIC BOUNDARIES ON OUTPUT.
Info: WRAPPING ALL CLUSTERS AROUND PERIODIC BOUNDARIES ON OUTPUT.
Info: FIRST LDB TIMESTEP     50
Info: LAST LDB TIMESTEP     -1
Info: HOM BACKGROUND SCALING 1
Info: PME BACKGROUND SCALING 1
Info: REMOVING PATCHES FROM PROCESSOR 0
Info: MIN ATOMS PER PATCH    40
Info: INITIAL TEMPERATURE    60
Info: CENTER OF MASS MOVING INITIALLY? NO
Info: DIELECTRIC             1
Info: EXCLUDE                SCALED ONE-FOUR
Info: 1-4 ELECTROSTATICS SCALED BY 1
Info: MODIFIED 1-4 VDW PARAMETERS WILL BE USED
Info: DCD FILENAME           Annealing.dcd
Info: DCD FREQUENCY          1000
Info: DCD FIRST STEP         1000
Info: DCD FILE WILL CONTAIN UNIT CELL DATA
Info: XST FILENAME           Annealing.xst
Info: XST FREQUENCY          1000
Info: NO VELOCITY DCD OUTPUT
Info: NO FORCE DCD OUTPUT
Info: OUTPUT FILENAME        Annealing
Info: RESTART FILENAME       Annealing.restart
Info: RESTART FREQUENCY      1000
Info: BINARY RESTART FILES WILL BE USED
Info: SWITCHING ACTIVE
Info: SWITCHING ON           10
Info: SWITCHING OFF          12
Info: PAIRLIST DISTANCE      14
Info: PAIRLIST SHRINK RATE   0.01
Info: PAIRLIST GROW RATE     0.01
Info: PAIRLIST TRIGGER       0.3
Info: PAIRLISTS PER CYCLE    2
Info: PAIRLISTS ENABLED
Info: MARGIN                 0.495
Info: HYDROGEN GROUP CUTOFF  2.5
Info: PATCH DIMENSION        16.995
Info: ENERGY OUTPUT STEPS    40
Info: CROSSTERM ENERGY INCLUDED IN DIHEDRAL
Info: TIMING OUTPUT STEPS    40
Info: PRESSURE OUTPUT STEPS  40
Info: HARMONIC CONSTRAINTS ACTIVE
Info: HARMONIC CONS EXP      2
Info: HARMONIC CONS SCALING  2
Info: INTERACTIVE MD ACTIVE
Info: INTERACTIVE MD PORT    3000
Info: INTERACTIVE MD FREQ    10
Info: INTERACTIVE FORCES ARE DISABLED
Info: PAUSE, RESUME, DETACH AND FINISH INTERACTIVE MD ARE ENABLED
Info: WILL AWAIT INTERACTIVE MD CONNECTION
Info: LANGEVIN DYNAMICS ACTIVE
Info: LANGEVIN TEMPERATURE   60
Info: LANGEVIN USING BBK INTEGRATOR
Info: LANGEVIN DAMPING COEFFICIENT IS 1 INVERSE PS
Info: LANGEVIN DYNAMICS NOT APPLIED TO HYDROGENS
Info: LANGEVIN PISTON PRESSURE CONTROL ACTIVE
Info:        TARGET PRESSURE IS 1.01325 BAR
Info:     OSCILLATION PERIOD IS 200 FS
Info:             DECAY TIME IS 100 FS
Info:     PISTON TEMPERATURE IS 60 K
Info:       PRESSURE CONTROL IS GROUP-BASED
Info:    INITIAL STRAIN RATE IS 0 0 0
Info:       CELL FLUCTUATION IS ISOTROPIC
Info: PARTICLE MESH EWALD (PME) ACTIVE
Info: PME TOLERANCE               1e-06
Info: PME EWALD COEFFICIENT       0.257952
Info: PME INTERPOLATION ORDER     4
Info: PME GRID DIMENSIONS         72 72 72
Info: PME MAXIMUM GRID SPACING    1
Info: FULL ELECTROSTATIC EVALUATION FREQUENCY      2
Info: USING VERLET I (r-RESPA) MTS SCHEME.
Info: C1 SPLITTING OF LONG RANGE ELECTROSTATICS
Info: PLACING ATOMS IN PATCHES BY HYDROGEN GROUPS
Info: RIGID BONDS TO HYDROGEN : ALL
Info:         ERROR TOLERANCE : 1e-08
Info:          MAX ITERATIONS : 100
Info: RIGID WATER USING SETTLE ALGORITHM
Info: RANDOM NUMBER SEED     1587313303
Info: USE HYDROGEN BONDS?    NO
Info: COORDINATE PDB         short_nonminimal_md_2x3_gfd_QwikMD.pdb
Info: STRUCTURE FILE         short_nonminimal_md_2x3_gfd_QwikMD.psf
Info: PARAMETER file: CHARMM format!
Info: PARAMETERS             toppar_water_ions_namd.str
Info: PARAMETERS             toppar_all36_carb_glycopeptide.str
Info: PARAMETERS             par_all36_lipid.prm
Info: PARAMETERS             par_all36_na.prm
Info: PARAMETERS             par_all36_prot.prm
Info: PARAMETERS             par_all36_carb.prm
Info: PARAMETERS             par_all36_cgenff.prm
Info: USING ARITHMETIC MEAN TO COMBINE L-J SIGMA PARAMETERS
Info: BINARY COORDINATES     Minimization.restart.coor
Info: SKIPPING rtf SECTION IN STREAM FILE
Info: SKIPPING rtf SECTION IN STREAM FILE
Info: SUMMARY OF PARAMETERS:
Info: 917 BONDS
Info: 2684 ANGLES
Info: 6576 DIHEDRAL
Info: 193 IMPROPER
Info: 6 CROSSTERM
Info: 350 VDW
Info: 6 VDW_PAIRS
Info: 0 NBTHOLE_PAIRS
Info: STRUCTURE SUMMARY:
Info: 32517 ATOMS
Info: 21850 BONDS
Info: 11717 ANGLES
Info: 1638 DIHEDRALS
Info: 96 IMPROPERS
Info: 30 CROSSTERMS
Info: 0 EXCLUSIONS
Info: 174 CONSTRAINTS
Info: 32067 RIGID BONDS
Info: 65484 DEGREES OF FREEDOM
Info: 11051 HYDROGEN GROUPS
Info: 4 ATOMS IN LARGEST HYDROGEN GROUP
Info: 11051 MIGRATION GROUPS
Info: 4 ATOMS IN LARGEST MIGRATION GROUP
Info: TOTAL MASS = 198301 amu
Info: TOTAL CHARGE = 8.04663e-07 e
Info: MASS DENSITY = 0.945543 g/cm^3
Info: ATOM DENSITY = 0.0933699 atoms/A^3
Info: ADDED 35151 IMPLICIT EXCLUSIONS
Info: NONBONDED TABLE R-SQUARED SPACING: 0.0625
Info: NONBONDED TABLE SIZE: 769 POINTS
Info: REMOVING COM VELOCITY -0.00216231 -0.00718516 0.0119748
Info: Interactive MD listening on port 3000.
TCL: Running for 10 steps
Info: INTERACTIVE MD AWAITING CONNECTION
Info: IMD connection opened
ETITLE: TS BOND ANGLE DIHED IMPRP ELECT VDW BOUNDARY MISC KINETIC TOTAL TEMP POTENTIAL TOTAL3 TEMPAVG PRESSURE GPRESSURE VOLUME PRESSAVG GPRESSAVG
ENERGY: 0 55.7221 91.8178 480.8152 7.8309 -153758.5828 16536.1756 75.3383 0.0000 3897.9979 -132612.8850 59.9096 -136510.8829 -132612.5055 59.9096 -4421.9948 -4366.5371 348259.8597 -4421.9948 -4366.5371
TCL: Setting parameter langevintemp to 60
TCL: Setting parameter langevinpistontemp to 60
TCL: Running for 10 steps
TCL: Setting parameter langevintemp to 61
TCL: Setting parameter langevinpistontemp to 61
TCL: Running for 10 steps
TCL: Setting parameter langevintemp to 62
TCL: Setting parameter langevinpistontemp to 62
TCL: Running for 10 steps
ETITLE: TS BOND ANGLE DIHED IMPRP ELECT VDW BOUNDARY MISC KINETIC TOTAL TEMP POTENTIAL TOTAL3 TEMPAVG PRESSURE GPRESSURE VOLUME PRESSAVG GPRESSAVG
ENERGY: 40 130.0667 124.0120 493.7143 13.9522 -154357.9530 18561.3725 77.2385 0.0000 2324.5643 -132633.0323 35.7270 -134957.5966 -132633.0927 36.7158 -2323.3424 -2268.5847 337057.4167 69.9273 73.9599
TCL: Setting parameter langevintemp to 63
TCL: Setting parameter langevinpistontemp to 63
TCL: Running for 10 steps
ETITLE: TS BOND ANGLE DIHED IMPRP ELECT VDW BOUNDARY MISC KINETIC TOTAL TEMP POTENTIAL TOTAL3 TEMPAVG PRESSURE GPRESSURE VOLUME PRESSAVG GPRESSAVG
ENERGY: 40 130.0667 124.0120 493.7143 13.9522 -154357.9530 18561.3725 77.2385 0.0000 2324.4429 -132633.1538 35.7252 -134957.5966 -132634.5548 35.7252 -2323.6790 -2268.4467 337057.4167 -2323.6790 -2268.4467
TCL: Setting parameter langevintemp to 64
TCL: Setting parameter langevinpistontemp to 64
TCL: Running for 10 steps
TCL: Setting parameter langevintemp to 65
TCL: Setting parameter langevinpistontemp to 65
TCL: Running for 10 steps
TCL: Setting parameter langevintemp to 66
TCL: Setting parameter langevinpistontemp to 66
TCL: Running for 10 steps
ETITLE: TS BOND ANGLE DIHED IMPRP ELECT VDW BOUNDARY MISC KINETIC TOTAL TEMP POTENTIAL TOTAL3 TEMPAVG PRESSURE GPRESSURE VOLUME PRESSAVG GPRESSAVG
ENERGY: 80 161.6776 141.0150 492.5651 16.3255 -155593.4938 19573.6444 79.9974 0.0000 2576.6780 -132551.5909 39.6018 -135128.2688 -132547.3161 37.8061 -1333.0685 -1276.2476 328034.0718 78.5254 82.5194
TCL: Setting parameter langevintemp to 67
TCL: Setting parameter langevinpistontemp to 67
TCL: Running for 10 steps
ETITLE: TS BOND ANGLE DIHED IMPRP ELECT VDW BOUNDARY MISC KINETIC TOTAL TEMP POTENTIAL TOTAL3 TEMPAVG PRESSURE GPRESSURE VOLUME PRESSAVG GPRESSAVG
ENERGY: 80 161.6776 141.0150 492.5651 16.3255 -155593.4938 19573.6444 79.9974 0.0000 2576.5487 -132551.7202 39.5998 -135128.2688 -132549.5150 39.5998 -1331.8909 -1275.9779 328034.0718 -1331.8909 -1275.9779
TCL: Setting parameter langevintemp to 68
TCL: Setting parameter langevinpistontemp to 68
TCL: Running for 10 steps
TCL: Setting parameter langevintemp to 69
TCL: Setting parameter langevinpistontemp to 69
TCL: Running for 10 steps
TCL: Setting parameter langevintemp to 70
TCL: Setting parameter langevinpistontemp to 70
TCL: Running for 10 steps
ETITLE: TS BOND ANGLE DIHED IMPRP ELECT VDW BOUNDARY MISC KINETIC TOTAL TEMP POTENTIAL TOTAL3 TEMPAVG PRESSURE GPRESSURE VOLUME PRESSAVG GPRESSAVG
ENERGY: 120 92.7764 124.8614 489.9386 11.5485 -155562.6772 19413.5344 78.7033 0.0000 2846.2849 -132505.0296 43.7455 -135351.3145 -132498.4733 41.7648 -1048.5901 -991.7594 322957.5298 90.0178 94.3588
TCL: Setting parameter langevintemp to 71
TCL: Setting parameter langevinpistontemp to 71
TCL: Running for 10 steps
ETITLE: TS BOND ANGLE DIHED IMPRP ELECT VDW BOUNDARY MISC KINETIC TOTAL TEMP POTENTIAL TOTAL3 TEMPAVG PRESSURE GPRESSURE VOLUME PRESSAVG GPRESSAVG
ENERGY: 120 92.7764 124.8614 489.9386 11.5485 -155562.6772 19413.5344 78.7033 0.0000 2846.1493 -132505.1652 43.7434 -135351.3145 -132499.5749 43.7434 -1048.0374 -991.6691 322957.5298 -1048.0374 -991.6691
TCL: Setting parameter langevintemp to 72
TCL: Setting parameter langevinpistontemp to 72
TCL: Running for 10 steps
TCL: Setting parameter langevintemp to 73
TCL: Setting parameter langevinpistontemp to 73
TCL: Running for 10 steps
TCL: Setting parameter langevintemp to 74
TCL: Setting parameter langevinpistontemp to 74
TCL: Running for 10 steps
ETITLE: TS BOND ANGLE DIHED IMPRP ELECT VDW BOUNDARY MISC KINETIC TOTAL TEMP POTENTIAL TOTAL3 TEMPAVG PRESSURE GPRESSURE VOLUME PRESSAVG GPRESSAVG
ENERGY: 160 64.9955 144.7234 492.1976 15.8038 -156521.5890 20304.3835 80.2206 0.0000 2995.8830 -132423.3816 46.0447 -135419.2646 -132418.2209 45.0519 216.7909 272.6405 318092.6337 9.5201 13.6281
TCL: Setting parameter langevintemp to 75
TCL: Setting parameter langevinpistontemp to 75
TCL: Running for 10 steps
ETITLE: TS BOND ANGLE DIHED IMPRP ELECT VDW BOUNDARY MISC KINETIC TOTAL TEMP POTENTIAL TOTAL3 TEMPAVG PRESSURE GPRESSURE VOLUME PRESSAVG GPRESSAVG
ENERGY: 160 64.9955 144.7234 492.1976 15.8038 -156521.5890 20304.3835 80.2206 0.0000 2995.7367 -132423.5280 46.0425 -135419.2646 -132418.8593 46.0425 217.4410 272.6822 318092.6337 217.4410 272.6822
TCL: Setting parameter langevintemp to 76
TCL: Setting parameter langevinpistontemp to 76
TCL: Running for 10 steps
TCL: Setting parameter langevintemp to 77
TCL: Setting parameter langevinpistontemp to 77
TCL: Running for 10 steps
TCL: Setting parameter langevintemp to 78
TCL: Setting parameter langevinpistontemp to 78
TCL: Running for 10 steps
ETITLE: TS BOND ANGLE DIHED IMPRP ELECT VDW BOUNDARY MISC KINETIC TOTAL TEMP POTENTIAL TOTAL3 TEMPAVG PRESSURE GPRESSURE VOLUME PRESSAVG GPRESSAVG
ENERGY: 200 61.3587 146.0480 495.0808 11.7762 -157062.9874 20773.1744 80.6666 0.0000 3145.9019 -132348.9808 48.3504 -135494.8827 -132342.0646 47.2511 733.3159 788.9154 315329.1105 -78.6619 -74.3747
TCL: Setting parameter langevintemp to 79
TCL: Setting parameter langevinpistontemp to 79
TCL: Running for 10 steps
ETITLE: TS BOND ANGLE DIHED IMPRP ELECT VDW BOUNDARY MISC KINETIC TOTAL TEMP POTENTIAL TOTAL3 TEMPAVG PRESSURE GPRESSURE VOLUME PRESSAVG GPRESSAVG
ENERGY: 200 61.3587 146.0480 495.0808 11.7762 -157062.9874 20773.1744 80.6666 0.0000 3145.7493 -132349.1334 48.3481 -135494.8827 -132343.9651 48.3481 733.5075 789.1387 315329.1105 733.5075 789.1387
TCL: Setting parameter langevintemp to 80
TCL: Setting parameter langevinpistontemp to 80
TCL: Running for 10 steps
TCL: Setting parameter langevintemp to 81
TCL: Setting parameter langevinpistontemp to 81
TCL: Running for 10 steps
TCL: Setting parameter langevintemp to 82
TCL: Setting parameter langevinpistontemp to 82
TCL: Running for 10 steps
ETITLE: TS BOND ANGLE DIHED IMPRP ELECT VDW BOUNDARY MISC KINETIC TOTAL TEMP POTENTIAL TOTAL3 TEMPAVG PRESSURE GPRESSURE VOLUME PRESSAVG GPRESSAVG
ENERGY: 240 79.0048 134.4245 501.4156 11.9152 -156152.5547 19788.9118 76.5403 0.0000 3285.0044 -132275.3382 50.4883 -135560.3426 -132269.7549 49.5811 -263.5552 -207.1064 315440.5089 14.7879 18.1635
TCL: Setting parameter langevintemp to 83
TCL: Setting parameter langevinpistontemp to 83
TCL: Running for 10 steps
ETITLE: TS BOND ANGLE DIHED IMPRP ELECT VDW BOUNDARY MISC KINETIC TOTAL TEMP POTENTIAL TOTAL3 TEMPAVG PRESSURE GPRESSURE VOLUME PRESSAVG GPRESSAVG
ENERGY: 240 79.0048 134.4245 501.4156 11.9152 -156152.5547 19788.9118 76.5403 0.0000 3284.8429 -132275.4997 50.4859 -135560.3426 -132270.1934 50.4859 -262.4931 -207.1556 315440.5089 -262.4931 -207.1556
TCL: Setting parameter langevintemp to 84
TCL: Setting parameter langevinpistontemp to 84
TCL: Running for 10 steps
TCL: Setting parameter langevintemp to 85
TCL: Setting parameter langevinpistontemp to 85
TCL: Running for 10 steps
TCL: Setting parameter langevintemp to 86
TCL: Setting parameter langevinpistontemp to 86
TCL: Running for 10 steps
ETITLE: TS BOND ANGLE DIHED IMPRP ELECT VDW BOUNDARY MISC KINETIC TOTAL TEMP POTENTIAL TOTAL3 TEMPAVG PRESSURE GPRESSURE VOLUME PRESSAVG GPRESSAVG
ENERGY: 280 85.8565 144.9404 502.7872 11.4481 -156378.3683 19940.6817 77.6090 0.0000 3449.0744 -132165.9710 53.0100 -135615.0454 -132160.8790 51.6979 -13.6198 40.5480 314181.0675 30.0705 33.7707
TCL: Setting parameter langevintemp to 87
TCL: Setting parameter langevinpistontemp to 87
TCL: Running for 10 steps
ETITLE: TS BOND ANGLE DIHED IMPRP ELECT VDW BOUNDARY MISC KINETIC TOTAL TEMP POTENTIAL TOTAL3 TEMPAVG PRESSURE GPRESSURE VOLUME PRESSAVG GPRESSAVG
ENERGY: 280 85.8565 144.9404 502.7872 11.4481 -156378.3683 19940.6817 77.6090 0.0000 3448.9049 -132166.1405 53.0074 -135615.0454 -132161.8312 53.0074 -14.8153 40.6080 314181.0675 -14.8153 40.6080
TCL: Setting parameter langevintemp to 88
TCL: Setting parameter langevinpistontemp to 88
TCL: Running for 10 steps
TCL: Setting parameter langevintemp to 89
TCL: Setting parameter langevinpistontemp to 89
TCL: Running for 10 steps
TCL: Setting parameter langevintemp to 90
TCL: Setting parameter langevinpistontemp to 90
TCL: Running for 10 steps
ETITLE: TS BOND ANGLE DIHED IMPRP ELECT VDW BOUNDARY MISC KINETIC TOTAL TEMP POTENTIAL TOTAL3 TEMPAVG PRESSURE GPRESSURE VOLUME PRESSAVG GPRESSAVG
ENERGY: 320 69.3123 148.3028 502.5646 10.3266 -156216.9145 19762.4657 78.6737 0.0000 3564.4866 -132080.7822 54.7838 -135645.2688 -132073.0431 53.8352 -113.1629 -64.1298 313758.5600 -8.0760 -4.1453
TCL: Setting parameter langevintemp to 91
TCL: Setting parameter langevinpistontemp to 91
TCL: Running for 10 steps
ETITLE: TS BOND ANGLE DIHED IMPRP ELECT VDW BOUNDARY MISC KINETIC TOTAL TEMP POTENTIAL TOTAL3 TEMPAVG PRESSURE GPRESSURE VOLUME PRESSAVG GPRESSAVG
ENERGY: 320 69.3123 148.3028 502.5646 10.3266 -156216.9145 19762.4657 78.6737 0.0000 3564.3093 -132080.9595 54.7811 -135645.2688 -132075.6067 54.7811 -116.4551 -63.8594 313758.5600 -116.4551 -63.8594
TCL: Setting parameter langevintemp to 92
TCL: Setting parameter langevinpistontemp to 92
TCL: Running for 10 steps
TCL: Setting parameter langevintemp to 93
TCL: Setting parameter langevinpistontemp to 93
TCL: Running for 10 steps
TCL: Setting parameter langevintemp to 94
TCL: Setting parameter langevinpistontemp to 94
TCL: Running for 10 steps
ETITLE: TS BOND ANGLE DIHED IMPRP ELECT VDW BOUNDARY MISC KINETIC TOTAL TEMP POTENTIAL TOTAL3 TEMPAVG PRESSURE GPRESSURE VOLUME PRESSAVG GPRESSAVG
ENERGY: 360 58.8130 145.9416 493.6134 11.0681 -156129.8591 19691.1309 80.4461 0.0000 3663.6247 -131985.2213 56.3075 -135648.8460 -131976.5775 55.5948 -53.1629 -1.0058 313382.1571 -1.7727 1.9573
TCL: Setting parameter langevintemp to 95
TCL: Setting parameter langevinpistontemp to 95
TCL: Running for 10 steps
ETITLE: TS BOND ANGLE DIHED IMPRP ELECT VDW BOUNDARY MISC KINETIC TOTAL TEMP POTENTIAL TOTAL3 TEMPAVG PRESSURE GPRESSURE VOLUME PRESSAVG GPRESSAVG
ENERGY: 360 58.8130 145.9416 493.6134 11.0681 -156129.8591 19691.1309 80.4461 0.0000 3663.4369 -131985.4092 56.3046 -135648.8460 -131980.2954 56.3046 -53.1017 -0.5680 313382.1571 -53.1017 -0.5680
TCL: Setting parameter langevintemp to 96
TCL: Setting parameter langevinpistontemp to 96
TCL: Running for 10 steps
TCL: Setting parameter langevintemp to 97
TCL: Setting parameter langevinpistontemp to 97
TCL: Running for 10 steps
TCL: Setting parameter langevintemp to 98
TCL: Setting parameter langevinpistontemp to 98
TCL: Running for 10 steps
ETITLE: TS BOND ANGLE DIHED IMPRP ELECT VDW BOUNDARY MISC KINETIC TOTAL TEMP POTENTIAL TOTAL3 TEMPAVG PRESSURE GPRESSURE VOLUME PRESSAVG GPRESSAVG
ENERGY: 400 74.4204 140.9097 498.3313 11.6911 -156157.0784 19670.2861 86.0588 0.0000 3796.6878 -131878.6932 58.3526 -135675.3811 -131871.3476 57.3627 -110.7907 -56.9289 312984.6408 -52.7133 -48.8910
TCL: Setting parameter langevintemp to 99
TCL: Setting parameter langevinpistontemp to 99
TCL: Running for 10 steps
ETITLE: TS BOND ANGLE DIHED IMPRP ELECT VDW BOUNDARY MISC KINETIC TOTAL TEMP POTENTIAL TOTAL3 TEMPAVG PRESSURE GPRESSURE VOLUME PRESSAVG GPRESSAVG
ENERGY: 400 74.4204 140.9097 498.3313 11.6911 -156157.0785 19670.2861 86.0588 0.0000 3796.4954 -131878.8857 58.3496 -135675.3811 -131873.9334 58.3496 -110.0823 -56.5763 312984.6408 -110.0823 -56.5763
TCL: Setting parameter langevintemp to 100
TCL: Setting parameter langevinpistontemp to 100
TCL: Running for 10 steps
TCL: Setting parameter langevintemp to 101
TCL: Setting parameter langevinpistontemp to 101
TCL: Running for 10 steps
TCL: Setting parameter langevintemp to 102
TCL: Setting parameter langevinpistontemp to 102
TCL: Running for 10 steps
ETITLE: TS BOND ANGLE DIHED IMPRP ELECT VDW BOUNDARY MISC KINETIC TOTAL TEMP POTENTIAL TOTAL3 TEMPAVG PRESSURE GPRESSURE VOLUME PRESSAVG GPRESSAVG
ENERGY: 440 88.2583 142.3563 503.2130 12.9708 -155883.1735 19422.0356 82.9159 0.0000 3864.2568 -131767.1668 59.3911 -135631.4236 -131759.7253 58.9323 -400.0092 -350.6057 312999.8514 33.3459 36.5839
TCL: Setting parameter langevintemp to 103
TCL: Setting parameter langevinpistontemp to 103
TCL: Running for 10 steps
ETITLE: TS BOND ANGLE DIHED IMPRP ELECT VDW BOUNDARY MISC KINETIC TOTAL TEMP POTENTIAL TOTAL3 TEMPAVG PRESSURE GPRESSURE VOLUME PRESSAVG GPRESSAVG
ENERGY: 440 88.2583 142.3563 503.2130 12.9708 -155883.1736 19422.0356 82.9159 0.0000 3864.0533 -131767.3703 59.3879 -135631.4236 -131762.7584 59.3879 -401.9957 -350.2291 312999.8514 -401.9957 -350.2291
TCL: Setting parameter langevintemp to 104
TCL: Setting parameter langevinpistontemp to 104
TCL: Running for 10 steps
TCL: Setting parameter langevintemp to 105
TCL: Setting parameter langevinpistontemp to 105
TCL: Running for 10 steps
TCL: Setting parameter langevintemp to 106
TCL: Setting parameter langevinpistontemp to 106
TCL: Running for 10 steps
ETITLE: TS BOND ANGLE DIHED IMPRP ELECT VDW BOUNDARY MISC KINETIC TOTAL TEMP POTENTIAL TOTAL3 TEMPAVG PRESSURE GPRESSURE VOLUME PRESSAVG GPRESSAVG
ENERGY: 480 68.9894 142.9635 500.2752 10.6914 -156295.1244 19874.4556 80.2979 0.0000 3980.9703 -131636.4811 61.1849 -135617.4513 -131629.1692 60.4855 126.5872 177.4284 312068.4099 6.9575 10.5156
TCL: Setting parameter langevintemp to 107
TCL: Setting parameter langevinpistontemp to 107
TCL: Running for 10 steps
ETITLE: TS BOND ANGLE DIHED IMPRP ELECT VDW BOUNDARY MISC KINETIC TOTAL TEMP POTENTIAL TOTAL3 TEMPAVG PRESSURE GPRESSURE VOLUME PRESSAVG GPRESSAVG
ENERGY: 480 68.9894 142.9635 500.2752 10.6914 -156295.1244 19874.4556 80.2979 0.0000 3980.7644 -131636.6869 61.1817 -135617.4513 -131631.7837 61.1817 125.2492 177.7492 312068.4099 125.2492 177.7492
TCL: Setting parameter langevintemp to 108
TCL: Setting parameter langevinpistontemp to 108
TCL: Running for 10 steps
TCL: Setting parameter langevintemp to 109
TCL: Setting parameter langevinpistontemp to 109
TCL: Running for 10 steps
TCL: Setting parameter langevintemp to 110
TCL: Setting parameter langevinpistontemp to 110
TCL: Running for 10 steps
ETITLE: TS BOND ANGLE DIHED IMPRP ELECT VDW BOUNDARY MISC KINETIC TOTAL TEMP POTENTIAL TOTAL3 TEMPAVG PRESSURE GPRESSURE VOLUME PRESSAVG GPRESSAVG
ENERGY: 520 75.0710 142.1983 497.9467 12.1842 -156115.9013 19711.7991 77.5014 0.0000 4122.6923 -131476.5082 63.3631 -135599.2005 -131469.4840 61.9788 -25.5200 22.5732 312258.9671 -16.4142 -13.0836
TCL: Setting parameter langevintemp to 111
TCL: Setting parameter langevinpistontemp to 111
TCL: Running for 10 steps
ETITLE: TS BOND ANGLE DIHED IMPRP ELECT VDW BOUNDARY MISC KINETIC TOTAL TEMP POTENTIAL TOTAL3 TEMPAVG PRESSURE GPRESSURE VOLUME PRESSAVG GPRESSAVG
ENERGY: 520 75.0710 142.1983 497.9467 12.1842 -156115.9012 19711.7991 77.5014 0.0000 4122.4765 -131476.7240 63.3597 -135599.2005 -131472.3204 63.3597 -27.3636 22.9048 312258.9671 -27.3636 22.9048
TCL: Setting parameter langevintemp to 112
TCL: Setting parameter langevinpistontemp to 112
TCL: Running for 10 steps
TCL: Setting parameter langevintemp to 113
TCL: Setting parameter langevinpistontemp to 113
TCL: Running for 10 steps
TCL: Setting parameter langevintemp to 114
TCL: Setting parameter langevinpistontemp to 114
TCL: Running for 10 steps
ETITLE: TS BOND ANGLE DIHED IMPRP ELECT VDW BOUNDARY MISC KINETIC TOTAL TEMP POTENTIAL TOTAL3 TEMPAVG PRESSURE GPRESSURE VOLUME PRESSAVG GPRESSAVG
ENERGY: 560 75.9038 144.1830 498.6395 9.9747 -156069.3903 19715.1884 78.4089 0.0000 4223.0778 -131324.0142 64.9059 -135547.0920 -131316.4182 63.9343 42.4167 86.3641 312230.4420 -9.7790 -5.9111
TCL: Setting parameter langevintemp to 115
TCL: Setting parameter langevinpistontemp to 115
TCL: Running for 10 steps
ETITLE: TS BOND ANGLE DIHED IMPRP ELECT VDW BOUNDARY MISC KINETIC TOTAL TEMP POTENTIAL TOTAL3 TEMPAVG PRESSURE GPRESSURE VOLUME PRESSAVG GPRESSAVG
ENERGY: 560 75.9038 144.1830 498.6395 9.9747 -156069.3903 19715.1884 78.4089 0.0000 4222.8519 -131324.2401 64.9024 -135547.0920 -131319.1806 64.9024 39.4382 86.6744 312230.4420 39.4382 86.6744
TCL: Setting parameter langevintemp to 116
TCL: Setting parameter langevinpistontemp to 116
TCL: Running for 10 steps
TCL: Setting parameter langevintemp to 117
TCL: Setting parameter langevinpistontemp to 117
TCL: Running for 10 steps
TCL: Setting parameter langevintemp to 118
TCL: Setting parameter langevinpistontemp to 118
TCL: Running for 10 steps
ETITLE: TS BOND ANGLE DIHED IMPRP ELECT VDW BOUNDARY MISC KINETIC TOTAL TEMP POTENTIAL TOTAL3 TEMPAVG PRESSURE GPRESSURE VOLUME PRESSAVG GPRESSAVG
ENERGY: 600 82.4292 137.5280 501.9071 12.3418 -155977.8207 19617.0233 77.3572 0.0000 4364.1574 -131185.0768 67.0742 -135549.2342 -131178.3847 66.1224 -97.8995 -45.4821 312362.0587 -2.9782 0.5809
TCL: Setting parameter langevintemp to 119
TCL: Setting parameter langevinpistontemp to 119
TCL: Running for 10 steps
ETITLE: TS BOND ANGLE DIHED IMPRP ELECT VDW BOUNDARY MISC KINETIC TOTAL TEMP POTENTIAL TOTAL3 TEMPAVG PRESSURE GPRESSURE VOLUME PRESSAVG GPRESSAVG
ENERGY: 600 82.4292 137.5280 501.9071 12.3418 -155977.8207 19617.0233 77.3572 0.0000 4363.9257 -131185.3084 67.0707 -135549.2342 -131179.7097 67.0707 -96.1519 -45.3983 312362.0587 -96.1519 -45.3983
TCL: Setting parameter langevintemp to 120
TCL: Setting parameter langevinpistontemp to 120
TCL: Running for 10 steps
TCL: Setting parameter langevintemp to 121
TCL: Setting parameter langevinpistontemp to 121
TCL: Running for 10 steps
TCL: Setting parameter langevintemp to 122
TCL: Setting parameter langevinpistontemp to 122
TCL: Running for 10 steps
ETITLE: TS BOND ANGLE DIHED IMPRP ELECT VDW BOUNDARY MISC KINETIC TOTAL TEMP POTENTIAL TOTAL3 TEMPAVG PRESSURE GPRESSURE VOLUME PRESSAVG GPRESSAVG
ENERGY: 640 73.3157 141.5141 498.6584 12.9087 -156016.0903 19724.9363 76.2545 0.0000 4451.0962 -131037.4064 68.4104 -135488.5027 -131030.0083 67.5670 108.4292 159.7355 311988.1338 -10.9197 -7.5868
TCL: Setting parameter langevintemp to 123
TCL: Setting parameter langevinpistontemp to 123
TCL: Running for 10 steps
ETITLE: TS BOND ANGLE DIHED IMPRP ELECT VDW BOUNDARY MISC KINETIC TOTAL TEMP POTENTIAL TOTAL3 TEMPAVG PRESSURE GPRESSURE VOLUME PRESSAVG GPRESSAVG
ENERGY: 640 73.3157 141.5141 498.6584 12.9087 -156016.0903 19724.9363 76.2545 0.0000 4450.8572 -131037.6454 68.4067 -135488.5027 -131032.7784 68.4067 107.9701 159.9758 311988.1338 107.9701 159.9758
TCL: Setting parameter langevintemp to 124
TCL: Setting parameter langevinpistontemp to 124
TCL: Running for 10 steps
TCL: Setting parameter langevintemp to 125
TCL: Setting parameter langevinpistontemp to 125
TCL: Running for 10 steps
TCL: Setting parameter langevintemp to 126
TCL: Setting parameter langevinpistontemp to 126
TCL: Running for 10 steps
ETITLE: TS BOND ANGLE DIHED IMPRP ELECT VDW BOUNDARY MISC KINETIC TOTAL TEMP POTENTIAL TOTAL3 TEMPAVG PRESSURE GPRESSURE VOLUME PRESSAVG GPRESSAVG
ENERGY: 680 85.2996 143.6869 502.3980 12.8399 -155831.4714 19594.8814 72.8385 0.0000 4528.4313 -130891.0959 69.5990 -135419.5272 -130882.6462 69.1768 11.4226 61.1383 312019.1019 -13.4941 -10.0072
TCL: Setting parameter langevintemp to 127
TCL: Setting parameter langevinpistontemp to 127
TCL: Running for 10 steps
ETITLE: TS BOND ANGLE DIHED IMPRP ELECT VDW BOUNDARY MISC KINETIC TOTAL TEMP POTENTIAL TOTAL3 TEMPAVG PRESSURE GPRESSURE VOLUME PRESSAVG GPRESSAVG
ENERGY: 680 85.2996 143.6869 502.3980 12.8399 -155831.4714 19594.8814 72.8385 0.0000 4528.1854 -130891.3418 69.5952 -135419.5272 -130885.9464 69.5952 11.7081 61.5303 312019.1019 11.7081 61.5303
TCL: Setting parameter langevintemp to 128
TCL: Setting parameter langevinpistontemp to 128
TCL: Running for 10 steps
TCL: Setting parameter langevintemp to 129
TCL: Setting parameter langevinpistontemp to 129
TCL: Running for 10 steps
TCL: Setting parameter langevintemp to 130
TCL: Setting parameter langevinpistontemp to 130
TCL: Running for 10 steps
ETITLE: TS BOND ANGLE DIHED IMPRP ELECT VDW BOUNDARY MISC KINETIC TOTAL TEMP POTENTIAL TOTAL3 TEMPAVG PRESSURE GPRESSURE VOLUME PRESSAVG GPRESSAVG
ENERGY: 720 84.7967 141.3276 500.9719 8.9522 -155680.6829 19454.9228 73.7618 0.0000 4693.6405 -130722.3094 72.1382 -135415.9499 -130713.7495 70.7622 -166.9981 -117.4801 312159.7008 7.7972 11.7152
TCL: Setting parameter langevintemp to 131
TCL: Setting parameter langevinpistontemp to 131
TCL: Running for 10 steps
ETITLE: TS BOND ANGLE DIHED IMPRP ELECT VDW BOUNDARY MISC KINETIC TOTAL TEMP POTENTIAL TOTAL3 TEMPAVG PRESSURE GPRESSURE VOLUME PRESSAVG GPRESSAVG
ENERGY: 720 84.7967 141.3276 500.9719 8.9522 -155680.6829 19454.9228 73.7618 0.0000 4693.3837 -130722.5662 72.1342 -135415.9499 -130717.3396 72.1342 -166.6874 -117.0243 312159.7008 -166.6874 -117.0243
TCL: Setting parameter langevintemp to 132
TCL: Setting parameter langevinpistontemp to 132
TCL: Running for 10 steps
TCL: Setting parameter langevintemp to 133
TCL: Setting parameter langevinpistontemp to 133
TCL: Running for 10 steps
TCL: Setting parameter langevintemp to 134
TCL: Setting parameter langevinpistontemp to 134
TCL: Running for 10 steps
ETITLE: TS BOND ANGLE DIHED IMPRP ELECT VDW BOUNDARY MISC KINETIC TOTAL TEMP POTENTIAL TOTAL3 TEMPAVG PRESSURE GPRESSURE VOLUME PRESSAVG GPRESSAVG
ENERGY: 760 83.3821 150.4920 494.9423 13.8702 -155502.6168 19351.8180 73.0882 0.0000 4813.5437 -130521.4803 73.9810 -135335.0240 -130511.9027 73.0841 -171.2289 -125.6556 312190.0228 2.0344 5.3826
TCL: Setting parameter langevintemp to 135
TCL: Setting parameter langevinpistontemp to 135
TCL: Running for 10 steps
ETITLE: TS BOND ANGLE DIHED IMPRP ELECT VDW BOUNDARY MISC KINETIC TOTAL TEMP POTENTIAL TOTAL3 TEMPAVG PRESSURE GPRESSURE VOLUME PRESSAVG GPRESSAVG
ENERGY: 760 83.3821 150.4920 494.9423 13.8702 -155502.6168 19351.8180 73.0882 0.0000 4813.2796 -130521.7444 73.9769 -135335.0240 -130516.6047 73.9769 -170.7534 -125.0903 312190.0228 -170.7534 -125.0903
TCL: Setting parameter langevintemp to 136
TCL: Setting parameter langevinpistontemp to 136
TCL: Running for 10 steps
TCL: Setting parameter langevintemp to 137
TCL: Setting parameter langevinpistontemp to 137
TCL: Running for 10 steps
TCL: Setting parameter langevintemp to 138
TCL: Setting parameter langevinpistontemp to 138
TCL: Running for 10 steps
ETITLE: TS BOND ANGLE DIHED IMPRP ELECT VDW BOUNDARY MISC KINETIC TOTAL TEMP POTENTIAL TOTAL3 TEMPAVG PRESSURE GPRESSURE VOLUME PRESSAVG GPRESSAVG
ENERGY: 800 87.2191 149.5016 500.4605 10.7450 -155261.8589 19194.0456 70.7623 0.0000 4910.3623 -130338.7625 75.4690 -135249.1248 -130329.7761 74.7174 -274.7469 -228.0483 312271.5204 -24.7831 -21.5001
TCL: Setting parameter langevintemp to 139
TCL: Setting parameter langevinpistontemp to 139
TCL: Running for 10 steps
