Info: SIMULATION PARAMETERS:
Info: TIMESTEP               2
Info: NUMBER OF STEPS        0
Info: STEPS PER CYCLE        10
Info: PERIODIC CELL BASIS 1  67.8955 0 0
Info: PERIODIC CELL BASIS 2  0 67.8955 0
Info: PERIODIC CELL BASIS 3  0 0 67.8955
Info: PERIODIC CELL CENTER   -0.0148716 -0.37094 -0.0619583
Info: WRAPPING WATERS AROUND PERIODIC BOUNDARIES ON OUTPUT.
Info: WRAPPING ALL CLUSTERS AROUND PERIODIC BOUNDARIES ON OUTPUT.
Info: FIRST LDB TIMESTEP     50
Info: LAST LDB TIMESTEP     -1
Info: HOM BACKGROUND SCALING 1
Info: PME BACKGROUND SCALING 1
Info: REMOVING PATCHES FROM PROCESSOR 0
Info: MIN ATOMS PER PATCH    40
Info: VELOCITY FILE          Annealing.restart.vel
Info: CENTER OF MASS MOVING INITIALLY? NO
Info: DIELECTRIC             1
Info: EXCLUDE                SCALED ONE-FOUR
Info: 1-4 ELECTROSTATICS SCALED BY 1
Info: MODIFIED 1-4 VDW PARAMETERS WILL BE USED
Info: DCD FILENAME           Equilibration.dcd
Info: DCD FREQUENCY          1000
Info: DCD FIRST STEP         1000
Info: DCD FILE WILL CONTAIN UNIT CELL DATA
Info: XST FILENAME           Equilibration.xst
Info: XST FREQUENCY          1000
Info: NO VELOCITY DCD OUTPUT
Info: NO FORCE DCD OUTPUT
Info: OUTPUT FILENAME        Equilibration
Info: RESTART FILENAME       Equilibration.restart
Info: RESTART FREQUENCY      1000
Info: BINARY RESTART FILES WILL BE USED
Info: SWITCHING ACTIVE
Info: SWITCHING ON           10
Info: SWITCHING OFF          12
Info: PAIRLIST DISTANCE      14
Info: PAIRLIST SHRINK RATE   0.01
Info: PAIRLIST GROW RATE     0.01
Info: PAIRLIST TRIGGER       0.3
Info: PAIRLISTS PER CYCLE    2
Info: PAIRLISTS ENABLED
Info: MARGIN                 0.495
Info: HYDROGEN GROUP CUTOFF  2.5
Info: PATCH DIMENSION        16.995
Info: ENERGY OUTPUT STEPS    40
Info: CROSSTERM ENERGY INCLUDED IN DIHEDRAL
Info: TIMING OUTPUT STEPS    40
Info: PRESSURE OUTPUT STEPS  40
Info: HARMONIC CONSTRAINTS ACTIVE
Info: HARMONIC CONS EXP      2
Info: HARMONIC CONS SCALING  2
Info: INTERACTIVE MD ACTIVE
Info: INTERACTIVE MD PORT    3000
Info: INTERACTIVE MD FREQ    10
Info: INTERACTIVE FORCES ARE DISABLED
Info: PAUSE, RESUME, DETACH AND FINISH INTERACTIVE MD ARE ENABLED
Info: WILL AWAIT INTERACTIVE MD CONNECTION
Info: LANGEVIN DYNAMICS ACTIVE
Info: LANGEVIN TEMPERATURE   300
Info: LANGEVIN USING BBK INTEGRATOR
Info: LANGEVIN DAMPING COEFFICIENT IS 1 INVERSE PS
Info: LANGEVIN DYNAMICS NOT APPLIED TO HYDROGENS
Info: LANGEVIN PISTON PRESSURE CONTROL ACTIVE
Info:        TARGET PRESSURE IS 1.01325 BAR
Info:     OSCILLATION PERIOD IS 200 FS
Info:             DECAY TIME IS 100 FS
Info:     PISTON TEMPERATURE IS 300 K
Info:       PRESSURE CONTROL IS GROUP-BASED
Info:    INITIAL STRAIN RATE IS 2.37962e-06 2.37962e-06 2.37962e-06
Info:       CELL FLUCTUATION IS ISOTROPIC
Info: PARTICLE MESH EWALD (PME) ACTIVE
Info: PME TOLERANCE               1e-06
Info: PME EWALD COEFFICIENT       0.257952
Info: PME INTERPOLATION ORDER     4
Info: PME GRID DIMENSIONS         72 72 72
Info: PME MAXIMUM GRID SPACING    1
Info: FULL ELECTROSTATIC EVALUATION FREQUENCY      2
Info: USING VERLET I (r-RESPA) MTS SCHEME.
Info: C1 SPLITTING OF LONG RANGE ELECTROSTATICS
Info: PLACING ATOMS IN PATCHES BY HYDROGEN GROUPS
Info: RIGID BONDS TO HYDROGEN : ALL
Info:         ERROR TOLERANCE : 1e-08
Info:          MAX ITERATIONS : 100
Info: RIGID WATER USING SETTLE ALGORITHM
Info: RANDOM NUMBER SEED     1587313700
Info: USE HYDROGEN BONDS?    NO
Info: COORDINATE PDB         short_nonminimal_md_2x3_gfd_QwikMD.pdb
Info: STRUCTURE FILE         short_nonminimal_md_2x3_gfd_QwikMD.psf
Info: PARAMETER file: CHARMM format!
Info: PARAMETERS             toppar_water_ions_namd.str
Info: PARAMETERS             toppar_all36_carb_glycopeptide.str
Info: PARAMETERS             par_all36_lipid.prm
Info: PARAMETERS             par_all36_na.prm
Info: PARAMETERS             par_all36_prot.prm
Info: PARAMETERS             par_all36_carb.prm
Info: PARAMETERS             par_all36_cgenff.prm
Info: USING ARITHMETIC MEAN TO COMBINE L-J SIGMA PARAMETERS
Info: BINARY COORDINATES     Annealing.restart.coor
Info: SKIPPING rtf SECTION IN STREAM FILE
Info: SKIPPING rtf SECTION IN STREAM FILE
Info: SUMMARY OF PARAMETERS:
Info: 917 BONDS
Info: 2684 ANGLES
Info: 6576 DIHEDRAL
Info: 193 IMPROPER
Info: 6 CROSSTERM
Info: 350 VDW
Info: 6 VDW_PAIRS
Info: 0 NBTHOLE_PAIRS
Info: STRUCTURE SUMMARY:
Info: 32517 ATOMS
Info: 21850 BONDS
Info: 11717 ANGLES
Info: 1638 DIHEDRALS
Info: 96 IMPROPERS
Info: 30 CROSSTERMS
Info: 0 EXCLUSIONS
Info: 174 CONSTRAINTS
Info: 32067 RIGID BONDS
Info: 65484 DEGREES OF FREEDOM
Info: 11051 HYDROGEN GROUPS
Info: 4 ATOMS IN LARGEST HYDROGEN GROUP
Info: 11051 MIGRATION GROUPS
Info: 4 ATOMS IN LARGEST MIGRATION GROUP
Info: TOTAL MASS = 198301 amu
Info: TOTAL CHARGE = 8.04663e-07 e
Info: MASS DENSITY = 1.05211 g/cm^3
Info: ATOM DENSITY = 0.103893 atoms/A^3
Info: ADDED 35151 IMPLICIT EXCLUSIONS
Info: NONBONDED TABLE R-SQUARED SPACING: 0.0625
Info: NONBONDED TABLE SIZE: 769 POINTS
Info: REMOVING COM VELOCITY -0.0389251 0.0292086 0.0492697
Info: Interactive MD listening on port 3000.
TCL: Running for 5000 steps
Info: INTERACTIVE MD AWAITING CONNECTION
Info: IMD connection opened
ETITLE: TS BOND ANGLE DIHED IMPRP ELECT VDW BOUNDARY MISC KINETIC TOTAL TEMP POTENTIAL TOTAL3 TEMPAVG PRESSURE GPRESSURE VOLUME PRESSAVG GPRESSAVG
ENERGY: 0 123.5668 205.0164 516.1309 14.1945 -149330.9942 17553.0415 76.9892 0.0000 9707.9225 -121134.1323 149.2044 -130842.0549 -121112.6790 149.2044 -107.0240 -63.8252 312984.7823 -107.0240 -63.8252
ENERGY: 1000 126.8957 281.0437 522.7614 21.4627 -140818.7725 15396.4312 74.8150 0.0000 14210.0109 -110185.3520 218.3985 -124395.3628 -110156.7119 218.1198 229.5233 269.6288 313500.4842 -17.0818 -17.2930
ENERGY: 2000 150.7170 271.9478 533.7675 19.9826 -135029.9734 13690.3484 78.4273 0.0000 16538.3161 -103746.4665 254.1830 -120284.7827 -103711.1009 251.8448 81.9891 120.3670 313295.3855 1.2926 1.5041
ENERGY: 3000 154.4789 281.9388 538.4566 22.3828 -131365.6528 12677.1669 75.2024 0.0000 17930.6065 -99685.4199 275.5816 -117616.0263 -99642.2459 273.1128 -70.9612 -38.5326 315075.6366 6.3410 5.6086
ENERGY: 4000 165.3496 291.3027 540.9119 22.6237 -129123.0332 12180.0377 78.4678 0.0000 18480.3477 -97363.9921 284.0307 -115844.3399 -97326.9245 283.5306 44.8928 81.3253 315043.2893 5.9533 6.3123
ENERGY: 5000 131.1341 302.6576 536.5613 21.4141 -128264.2161 12103.1036 75.1803 0.0000 18865.0350 -96229.1302 289.9431 -115094.1651 -96184.5694 289.9919 164.1093 192.2567 318077.0094 64.2934 64.2168
