Info: SIMULATION PARAMETERS:
Info: TIMESTEP               2
Info: NUMBER OF STEPS        0
Info: STEPS PER CYCLE        10
Info: PERIODIC CELL BASIS 1  68.2618 0 0
Info: PERIODIC CELL BASIS 2  0 68.2618 0
Info: PERIODIC CELL BASIS 3  0 0 68.2618
Info: PERIODIC CELL CENTER   -0.0148716 -0.37094 -0.0619583
Info: WRAPPING WATERS AROUND PERIODIC BOUNDARIES ON OUTPUT.
Info: WRAPPING ALL CLUSTERS AROUND PERIODIC BOUNDARIES ON OUTPUT.
Info: FIRST LDB TIMESTEP     50
Info: LAST LDB TIMESTEP     -1
Info: HOM BACKGROUND SCALING 1
Info: PME BACKGROUND SCALING 1
Info: REMOVING PATCHES FROM PROCESSOR 0
Info: MIN ATOMS PER PATCH    40
Info: VELOCITY FILE          Equilibration.restart.vel
Info: CENTER OF MASS MOVING INITIALLY? NO
Info: DIELECTRIC             1
Info: EXCLUDE                SCALED ONE-FOUR
Info: 1-4 ELECTROSTATICS SCALED BY 1
Info: MODIFIED 1-4 VDW PARAMETERS WILL BE USED
Info: DCD FILENAME           MD.dcd
Info: DCD FREQUENCY          1000
Info: DCD FIRST STEP         1000
Info: DCD FILE WILL CONTAIN UNIT CELL DATA
Info: XST FILENAME           MD.xst
Info: XST FREQUENCY          1000
Info: NO VELOCITY DCD OUTPUT
Info: NO FORCE DCD OUTPUT
Info: OUTPUT FILENAME        MD
Info: RESTART FILENAME       MD.restart
Info: RESTART FREQUENCY      1000
Info: BINARY RESTART FILES WILL BE USED
Info: SWITCHING ACTIVE
Info: SWITCHING ON           10
Info: SWITCHING OFF          12
Info: PAIRLIST DISTANCE      14
Info: PAIRLIST SHRINK RATE   0.01
Info: PAIRLIST GROW RATE     0.01
Info: PAIRLIST TRIGGER       0.3
Info: PAIRLISTS PER CYCLE    2
Info: PAIRLISTS ENABLED
Info: MARGIN                 0.495
Info: HYDROGEN GROUP CUTOFF  2.5
Info: PATCH DIMENSION        16.995
Info: ENERGY OUTPUT STEPS    40
Info: CROSSTERM ENERGY INCLUDED IN DIHEDRAL
Info: TIMING OUTPUT STEPS    40
Info: PRESSURE OUTPUT STEPS  40
Info: INTERACTIVE MD ACTIVE
Info: INTERACTIVE MD PORT    3000
Info: INTERACTIVE MD FREQ    10
Info: INTERACTIVE FORCES ARE DISABLED
Info: PAUSE, RESUME, DETACH AND FINISH INTERACTIVE MD ARE ENABLED
Info: WILL AWAIT INTERACTIVE MD CONNECTION
Info: LANGEVIN DYNAMICS ACTIVE
Info: LANGEVIN TEMPERATURE   300
Info: LANGEVIN USING BBK INTEGRATOR
Info: LANGEVIN DAMPING COEFFICIENT IS 1 INVERSE PS
Info: LANGEVIN DYNAMICS NOT APPLIED TO HYDROGENS
Info: LANGEVIN PISTON PRESSURE CONTROL ACTIVE
Info:        TARGET PRESSURE IS 1.01325 BAR
Info:     OSCILLATION PERIOD IS 200 FS
Info:             DECAY TIME IS 100 FS
Info:     PISTON TEMPERATURE IS 300 K
Info:       PRESSURE CONTROL IS GROUP-BASED
Info:    INITIAL STRAIN RATE IS 2.43721e-05 2.43721e-05 2.43721e-05
Info:       CELL FLUCTUATION IS ISOTROPIC
Info: PARTICLE MESH EWALD (PME) ACTIVE
Info: PME TOLERANCE               1e-06
Info: PME EWALD COEFFICIENT       0.257952
Info: PME INTERPOLATION ORDER     4
Info: PME GRID DIMENSIONS         72 72 72
Info: PME MAXIMUM GRID SPACING    1
Info: FULL ELECTROSTATIC EVALUATION FREQUENCY      2
Info: USING VERLET I (r-RESPA) MTS SCHEME.
Info: C1 SPLITTING OF LONG RANGE ELECTROSTATICS
Info: PLACING ATOMS IN PATCHES BY HYDROGEN GROUPS
Info: RIGID BONDS TO HYDROGEN : ALL
Info:         ERROR TOLERANCE : 1e-08
Info:          MAX ITERATIONS : 100
Info: RIGID WATER USING SETTLE ALGORITHM
Info: RANDOM NUMBER SEED     1587313876
Info: USE HYDROGEN BONDS?    NO
Info: COORDINATE PDB         short_nonminimal_md_2x3_gfd_QwikMD.pdb
Info: STRUCTURE FILE         short_nonminimal_md_2x3_gfd_QwikMD.psf
Info: PARAMETER file: CHARMM format!
Info: PARAMETERS             toppar_water_ions_namd.str
Info: PARAMETERS             toppar_all36_carb_glycopeptide.str
Info: PARAMETERS             par_all36_lipid.prm
Info: PARAMETERS             par_all36_na.prm
Info: PARAMETERS             par_all36_prot.prm
Info: PARAMETERS             par_all36_carb.prm
Info: PARAMETERS             par_all36_cgenff.prm
Info: USING ARITHMETIC MEAN TO COMBINE L-J SIGMA PARAMETERS
Info: BINARY COORDINATES     Equilibration.restart.coor
Info: SKIPPING rtf SECTION IN STREAM FILE
Info: SKIPPING rtf SECTION IN STREAM FILE
Info: SUMMARY OF PARAMETERS:
Info: 917 BONDS
Info: 2684 ANGLES
Info: 6576 DIHEDRAL
Info: 193 IMPROPER
Info: 6 CROSSTERM
Info: 350 VDW
Info: 6 VDW_PAIRS
Info: 0 NBTHOLE_PAIRS
Info: STRUCTURE SUMMARY:
Info: 32517 ATOMS
Info: 21850 BONDS
Info: 11717 ANGLES
Info: 1638 DIHEDRALS
Info: 96 IMPROPERS
Info: 30 CROSSTERMS
Info: 0 EXCLUSIONS
Info: 32067 RIGID BONDS
Info: 65484 DEGREES OF FREEDOM
Info: 11051 HYDROGEN GROUPS
Info: 4 ATOMS IN LARGEST HYDROGEN GROUP
Info: 11051 MIGRATION GROUPS
Info: 4 ATOMS IN LARGEST MIGRATION GROUP
Info: TOTAL MASS = 198301 amu
Info: TOTAL CHARGE = 8.04663e-07 e
Info: MASS DENSITY = 1.03527 g/cm^3
Info: ATOM DENSITY = 0.10223 atoms/A^3
Info: ADDED 35151 IMPLICIT EXCLUSIONS
Info: NONBONDED TABLE R-SQUARED SPACING: 0.0625
Info: NONBONDED TABLE SIZE: 769 POINTS
Info: REMOVING COM VELOCITY -0.0238363 0.0583441 0.0528677
Info: Interactive MD listening on port 3000.
TCL: Running for 5000 steps
Info: INTERACTIVE MD AWAITING CONNECTION
Info: IMD connection opened
ETITLE: TS BOND ANGLE DIHED IMPRP ELECT VDW BOUNDARY MISC KINETIC TOTAL TEMP POTENTIAL TOTAL3 TEMPAVG PRESSURE GPRESSURE VOLUME PRESSAVG GPRESSAVG
ENERGY: 0 131.1341 302.6576 536.5613 21.4141 -128264.2162 12103.1036 0.0000 0.0000 18862.8389 -96306.5066 289.9094 -115169.3455 -96263.9097 289.9094 135.7704 169.5271 318077.0094 135.7704 169.5271
ENERGY: 1000 163.0306 310.8702 529.7083 32.0303 -127521.0085 11950.8618 0.0000 0.0000 19162.0147 -95372.4926 294.5075 -114534.5073 -95337.5670 294.1958 63.1362 99.0410 319260.7237 -7.5639 -7.3597
ENERGY: 2000 135.9622 295.2073 520.0998 28.8521 -126744.6815 11508.6220 0.0000 0.0000 19376.1579 -94879.7801 297.7987 -114255.9381 -94835.5134 298.1144 -73.9583 -39.5737 318225.5216 -14.1864 -14.6883
ENERGY: 3000 171.7113 289.6897 538.0784 19.4763 -126565.6733 11431.4620 0.0000 0.0000 19455.8613 -94659.3943 299.0237 -114115.2556 -94611.6673 297.7059 -319.9744 -285.5558 320406.6179 -38.7473 -39.2261
ENERGY: 4000 155.1685 329.3322 528.8059 22.6628 -126650.8484 11716.8895 0.0000 0.0000 19545.6239 -94352.3657 300.4033 -113897.9895 -94311.2138 298.4528 100.0810 133.3870 319605.0556 -10.8738 -11.6121
ENERGY: 5000 157.6942 312.4996 521.1491 27.5424 -126591.3483 11607.8323 0.0000 0.0000 19432.8928 -94531.7379 298.6707 -113964.6307 -94490.7824 299.5732 -75.1138 -39.1248 320240.4519 20.1883 20.8372
