Info: SIMULATION PARAMETERS:
Info: TIMESTEP               2
Info: NUMBER OF STEPS        0
Info: STEPS PER CYCLE        10
Info: PERIODIC CELL BASIS 1  70.356 0 0
Info: PERIODIC CELL BASIS 2  0 70.356 0
Info: PERIODIC CELL BASIS 3  0 0 70.356
Info: PERIODIC CELL CENTER   -0.0148716 -0.37094 -0.0619583
Info: WRAPPING WATERS AROUND PERIODIC BOUNDARIES ON OUTPUT.
Info: WRAPPING ALL CLUSTERS AROUND PERIODIC BOUNDARIES ON OUTPUT.
Info: FIRST LDB TIMESTEP     50
Info: LAST LDB TIMESTEP     -1
Info: HOM BACKGROUND SCALING 1
Info: PME BACKGROUND SCALING 1
Info: REMOVING PATCHES FROM PROCESSOR 0
Info: MIN ATOMS PER PATCH    40
Info: INITIAL TEMPERATURE    0
Info: CENTER OF MASS MOVING INITIALLY? NO
Info: DIELECTRIC             1
Info: EXCLUDE                SCALED ONE-FOUR
Info: 1-4 ELECTROSTATICS SCALED BY 1
Info: MODIFIED 1-4 VDW PARAMETERS WILL BE USED
Info: DCD FILENAME           Minimization.dcd
Info: DCD FREQUENCY          1000
Info: DCD FIRST STEP         1000
Info: DCD FILE WILL CONTAIN UNIT CELL DATA
Info: XST FILENAME           Minimization.xst
Info: XST FREQUENCY          1000
Info: NO VELOCITY DCD OUTPUT
Info: NO FORCE DCD OUTPUT
Info: OUTPUT FILENAME        Minimization
Info: RESTART FILENAME       Minimization.restart
Info: RESTART FREQUENCY      1000
Info: BINARY RESTART FILES WILL BE USED
Info: SWITCHING ACTIVE
Info: SWITCHING ON           10
Info: SWITCHING OFF          12
Info: PAIRLIST DISTANCE      14
Info: PAIRLIST SHRINK RATE   0.01
Info: PAIRLIST GROW RATE     0.01
Info: PAIRLIST TRIGGER       0.3
Info: PAIRLISTS PER CYCLE    2
Info: PAIRLISTS ENABLED
Info: MARGIN                 0.495
Info: HYDROGEN GROUP CUTOFF  2.5
Info: PATCH DIMENSION        16.995
Info: ENERGY OUTPUT STEPS    40
Info: CROSSTERM ENERGY INCLUDED IN DIHEDRAL
Info: TIMING OUTPUT STEPS    40
Info: PRESSURE OUTPUT STEPS  40
Info: HARMONIC CONSTRAINTS ACTIVE
Info: HARMONIC CONS EXP      2
Info: HARMONIC CONS SCALING  2
Info: INTERACTIVE MD ACTIVE
Info: INTERACTIVE MD PORT    3000
Info: INTERACTIVE MD FREQ    10
Info: INTERACTIVE FORCES ARE DISABLED
Info: PAUSE, RESUME, DETACH AND FINISH INTERACTIVE MD ARE ENABLED
Info: WILL AWAIT INTERACTIVE MD CONNECTION
Info: LANGEVIN DYNAMICS ACTIVE
Info: LANGEVIN TEMPERATURE   0
Info: LANGEVIN USING BBK INTEGRATOR
Info: LANGEVIN DAMPING COEFFICIENT IS 1 INVERSE PS
Info: LANGEVIN DYNAMICS NOT APPLIED TO HYDROGENS
Info: LANGEVIN PISTON PRESSURE CONTROL ACTIVE
Info:        TARGET PRESSURE IS 1.01325 BAR
Info:     OSCILLATION PERIOD IS 200 FS
Info:             DECAY TIME IS 100 FS
Info:     PISTON TEMPERATURE IS 1 K
Info:       PRESSURE CONTROL IS GROUP-BASED
Info:    INITIAL STRAIN RATE IS 0 0 0
Info:       CELL FLUCTUATION IS ISOTROPIC
Info: PARTICLE MESH EWALD (PME) ACTIVE
Info: PME TOLERANCE               1e-06
Info: PME EWALD COEFFICIENT       0.257952
Info: PME INTERPOLATION ORDER     4
Info: PME GRID DIMENSIONS         72 72 72
Info: PME MAXIMUM GRID SPACING    1
Info: FULL ELECTROSTATIC EVALUATION FREQUENCY      2
Info: USING VERLET I (r-RESPA) MTS SCHEME.
Info: C1 SPLITTING OF LONG RANGE ELECTROSTATICS
Info: PLACING ATOMS IN PATCHES BY HYDROGEN GROUPS
Info: RIGID BONDS TO HYDROGEN : ALL
Info:         ERROR TOLERANCE : 1e-08
Info:          MAX ITERATIONS : 100
Info: RIGID WATER USING SETTLE ALGORITHM
Info: RANDOM NUMBER SEED     1587312868
Info: USE HYDROGEN BONDS?    NO
Info: COORDINATE PDB         short_nonminimal_md_2x3_gfd_QwikMD.pdb
Info: STRUCTURE FILE         short_nonminimal_md_2x3_gfd_QwikMD.psf
Info: PARAMETER file: CHARMM format!
Info: PARAMETERS             toppar_water_ions_namd.str
Info: PARAMETERS             toppar_all36_carb_glycopeptide.str
Info: PARAMETERS             par_all36_lipid.prm
Info: PARAMETERS             par_all36_na.prm
Info: PARAMETERS             par_all36_prot.prm
Info: PARAMETERS             par_all36_carb.prm
Info: PARAMETERS             par_all36_cgenff.prm
Info: USING ARITHMETIC MEAN TO COMBINE L-J SIGMA PARAMETERS
Info: SKIPPING rtf SECTION IN STREAM FILE
Info: SKIPPING rtf SECTION IN STREAM FILE
Info: SUMMARY OF PARAMETERS:
Info: 917 BONDS
Info: 2684 ANGLES
Info: 6576 DIHEDRAL
Info: 193 IMPROPER
Info: 6 CROSSTERM
Info: 350 VDW
Info: 6 VDW_PAIRS
Info: 0 NBTHOLE_PAIRS
Info: STRUCTURE SUMMARY:
Info: 32517 ATOMS
Info: 21850 BONDS
Info: 11717 ANGLES
Info: 1638 DIHEDRALS
Info: 96 IMPROPERS
Info: 30 CROSSTERMS
Info: 0 EXCLUSIONS
Info: 174 CONSTRAINTS
Info: 32067 RIGID BONDS
Info: 65484 DEGREES OF FREEDOM
Info: 11051 HYDROGEN GROUPS
Info: 4 ATOMS IN LARGEST HYDROGEN GROUP
Info: 11051 MIGRATION GROUPS
Info: 4 ATOMS IN LARGEST MIGRATION GROUP
Info: TOTAL MASS = 198301 amu
Info: TOTAL CHARGE = 8.04663e-07 e
Info: MASS DENSITY = 0.945543 g/cm^3
Info: ATOM DENSITY = 0.0933699 atoms/A^3
Info: ADDED 35151 IMPLICIT EXCLUSIONS
Info: NONBONDED TABLE R-SQUARED SPACING: 0.0625
Info: NONBONDED TABLE SIZE: 769 POINTS
Info: REMOVING COM VELOCITY 0 0 0
Info: Interactive MD listening on port 3000.
TCL: Minimizing for 2000 steps
Info: INTERACTIVE MD AWAITING CONNECTION
Info: IMD connection opened
ETITLE: TS BOND ANGLE DIHED IMPRP ELECT VDW BOUNDARY MISC KINETIC TOTAL TEMP POTENTIAL TOTAL3 TEMPAVG PRESSURE GPRESSURE VOLUME PRESSAVG GPRESSAVG
ENERGY: 0 527.6082 516.6512 532.1986 0.0213 -102570.9394 16731981.4136 0.0035 0.0000 0.0000 16630986.9570 0.0000 16630986.9570 16630986.9570 0.0000 13369189.3381 14884714.9945 348259.8597 13369189.3381 14884714.9945
ENERGY: 400 78.6972 115.9339 489.3500 11.9420 -144737.3494 13713.7137 84.2431 0.0000 0.0000 -130243.4696 0.0000 -130243.4696 -130243.4696 0.0000 17964.1825 17796.1777 348259.8597 17964.1825 17796.1777
ENERGY: 800 163.7562 132.9048 484.1310 11.1364 -150052.7085 15243.0366 75.8525 0.0000 0.0000 -133941.8911 0.0000 -133941.8911 -133941.8911 0.0000 19265.5201 19103.6606 348259.8597 19265.5201 19103.6606
ENERGY: 1200 59.4141 98.7605 476.6824 8.6740 -152066.1116 15921.0528 75.1672 0.0000 0.0000 -135426.3607 0.0000 -135426.3607 -135426.3607 0.0000 19836.2446 19662.0243 348259.8597 19836.2446 19662.0243
ENERGY: 1600 55.7349 92.3750 478.4434 7.5331 -153121.9363 16343.7886 74.1433 0.0000 0.0000 -136069.9179 0.0000 -136069.9179 -136069.9179 0.0000 20243.5939 20065.3894 348259.8597 20243.5939 20065.3894
ENERGY: 2000 55.7221 91.8178 480.8152 7.8309 -153758.5828 16536.1756 75.3383 0.0000 0.0000 -136510.8829 0.0000 -136510.8829 -136510.8829 0.0000 20400.2488 20227.3808 348259.8597 20400.2488 20227.3808
